Version 4
SHEET 1 2644 680
WIRE 1584 -336 1392 -336
WIRE 1392 -272 1392 -336
WIRE 1424 -272 1392 -272
WIRE 1632 -256 1488 -256
WIRE 1664 -256 1632 -256
WIRE 1776 -256 1728 -256
WIRE 1424 -240 1392 -240
WIRE 1216 -192 1184 -192
WIRE 1392 -192 1392 -240
WIRE 1392 -192 1216 -192
WIRE 1584 -160 1584 -336
WIRE 1632 -160 1632 -176
WIRE 1632 -160 1584 -160
WIRE 1776 -144 1776 -176
WIRE 1632 -128 1632 -160
WIRE 1776 -128 1776 -144
WIRE 704 -32 624 -32
WIRE 832 -32 768 -32
WIRE 1040 -32 832 -32
WIRE 624 -16 624 -32
WIRE 1040 -16 1040 -32
WIRE 832 0 832 -32
WIRE 624 80 624 64
WIRE 736 80 624 80
WIRE 832 80 736 80
WIRE 1040 80 1040 48
WIRE 1040 80 832 80
WIRE 1424 160 1424 112
WIRE 1424 160 1312 160
WIRE 1776 176 1760 176
WIRE 1824 176 1776 176
WIRE 1872 176 1824 176
WIRE 1984 176 1936 176
WIRE 1424 224 1424 160
WIRE 1424 240 1424 224
FLAG 736 80 0
FLAG 624 224 0
FLAG 912 224 0
FLAG 624 -32 Vin
FLAG 1040 -32 Vout
FLAG 624 144 c
FLAG 912 144 m
FLAG 1312 160 0
FLAG 1424 32 V+
FLAG 1424 304 V-
FLAG 1216 -112 0
FLAG 1632 -48 0
FLAG 1456 -288 V+
FLAG 1456 -224 V-
FLAG 1120 -192 Vout
FLAG 1648 176 0
FLAG 1776 144 V+
FLAG 1648 144 0
FLAG 1984 176 Vout2
FLAG 1776 -144 Vout1
FLAG 1648 112 Vout1
FLAG 1776 -48 0
FLAG 1824 320 0
SYMBOL diode 704 -16 R270
WINDOW 0 32 32 VTop 2
WINDOW 3 0 32 VBottom 2
SYMATTR InstName D1
SYMATTR Value 1N34A
SYMBOL res 816 -16 R0
SYMATTR InstName R1
SYMATTR Value 47k
SYMBOL cap 1024 -16 R0
SYMATTR InstName C1
SYMATTR Value 2200p
SYMBOL voltage 624 128 R0
WINDOW 123 24 44 Left 2
WINDOW 39 0 0 Left 0
SYMATTR Value2 AC 100m
SYMATTR InstName V1
SYMATTR Value SINE(0 100m 1MEG)
SYMBOL voltage 912 128 R0
WINDOW 123 24 124 Left 2
WINDOW 39 0 0 Left 0
SYMATTR Value2 AC 1
SYMATTR InstName V2
SYMATTR Value SINE(0 1 1k)
SYMBOL bv 624 -32 R0
SYMATTR InstName B1
SYMATTR Value V= V(m)*V(c)
SYMBOL voltage 1424 208 R0
WINDOW 123 0 0 Left 0
WINDOW 39 0 0 Left 0
SYMATTR InstName V4
SYMATTR Value 5
SYMBOL voltage 1424 16 R0
WINDOW 123 0 0 Left 0
WINDOW 39 0 0 Left 0
SYMATTR InstName V5
SYMATTR Value 5
SYMBOL LM741 1456 -320 R0
SYMATTR InstName U1
SYMBOL cap 1184 -208 R90
WINDOW 0 0 32 VBottom 2
WINDOW 3 32 32 VTop 2
SYMATTR InstName C2
SYMATTR Value 0.1µ
SYMBOL res 1200 -208 R0
WINDOW 3 36 68 Left 2
SYMATTR Value 47k
SYMATTR InstName R2
SYMBOL res 1616 -272 R0
SYMATTR InstName R3
SYMATTR Value 75k
SYMBOL res 1616 -144 R0
SYMATTR InstName R4
SYMATTR Value 1k
SYMBOL LM386 1712 128 R0
SYMATTR InstName U2
SYMBOL cap 1728 -272 R90
WINDOW 0 0 32 VBottom 2
WINDOW 3 32 32 VTop 2
SYMATTR InstName C3
SYMATTR Value 1µ
SYMBOL res 1760 -272 R0
WINDOW 0 538 585 Left 2
SYMATTR InstName R5
SYMATTR Value {r}
SYMBOL res 1760 -144 R0
WINDOW 0 686 368 Left 2
SYMATTR InstName R6
SYMATTR Value {r_}
SYMBOL cap 1808 176 R0
WINDOW 0 -34 389 Left 2
SYMATTR InstName C4
SYMATTR Value 1n
SYMBOL res 1808 224 R0
WINDOW 0 13 358 Left 2
SYMATTR InstName R7
SYMATTR Value 10
SYMBOL cap 1936 160 R90
WINDOW 0 0 32 VBottom 2
WINDOW 3 32 32 VTop 2
SYMATTR InstName C5
SYMATTR Value 1µ
TEXT 1280 -408 Left 2 !.MODEL 1N34A D(IS=2.6u RS=6.5 N=1.6 CJO=0.8p EG=0.67 BV=25 IBV=0.003 Type=GePunctualContact)
TEXT 1264 -600 Left 2 !.tran 1m
TEXT 1296 -488 Left 2 !.lib LM741.lib
TEXT 1272 -448 Left 2 !.include LM386.sub
TEXT 1288 -560 Left 2 !.step param r 0.001 10k 1k
TEXT 1296 -528 Left 2 !.param r_ = 10.00001k - r
