Version 4
SHEET 1 1048 680
WIRE -80 -32 -160 -32
WIRE 64 -32 0 -32
WIRE 176 -32 64 -32
WIRE 320 -32 256 -32
WIRE 384 -32 320 -32
WIRE 560 -32 464 -32
WIRE -160 32 -160 -32
WIRE 560 32 560 -32
WIRE 64 48 64 -32
WIRE 320 48 320 -32
FLAG -160 112 0
FLAG 64 128 0
FLAG 320 128 0
FLAG 560 112 0
FLAG -160 -32 1
FLAG 64 -32 2
FLAG 320 -32 3
FLAG 560 -32 4
SYMBOL voltage -160 16 R0
WINDOW 123 0 0 Left 0
WINDOW 39 0 0 Left 0
SYMATTR InstName V1
SYMATTR Value 8
SYMBOL voltage 320 144 R180
WINDOW 123 0 0 Left 0
WINDOW 39 0 0 Left 0
SYMATTR InstName V2
SYMATTR Value 4
SYMBOL res 16 -48 R90
WINDOW 0 0 56 VBottom 2
WINDOW 3 32 56 VTop 2
SYMATTR InstName R1
SYMATTR Value 4k
SYMBOL res 48 32 R0
SYMATTR InstName R2
SYMATTR Value 2k
SYMBOL res 272 -48 R90
WINDOW 0 0 56 VBottom 2
WINDOW 3 32 56 VTop 2
SYMATTR InstName R3
SYMATTR Value 1k
SYMBOL res 480 -48 R90
WINDOW 0 0 56 VBottom 2
WINDOW 3 32 56 VTop 2
SYMATTR InstName R4
SYMATTR Value 6k
SYMBOL res 544 16 R0
SYMATTR InstName R5
SYMATTR Value 1k
TEXT 1008 152 Left 2 !.op
