Version 4
SHEET 1 2276 680
WIRE 832 -16 656 -16
WIRE 1008 0 944 0
WIRE 1136 0 1088 0
WIRE 1824 32 1792 32
WIRE 1920 32 1888 32
WIRE 656 80 656 -16
WIRE 704 80 656 80
WIRE 2096 80 2096 32
WIRE 832 96 832 -16
WIRE 832 96 768 96
WIRE 944 96 944 0
WIRE 944 96 912 96
WIRE 1008 96 944 96
WIRE -128 112 -208 112
WIRE 0 112 -48 112
WIRE 144 112 64 112
WIRE 240 112 144 112
WIRE 336 112 304 112
WIRE 432 112 336 112
WIRE 480 112 432 112
WIRE 592 112 544 112
WIRE 704 112 592 112
WIRE 1136 112 1136 0
WIRE 1136 112 1072 112
WIRE 1216 112 1136 112
WIRE 1376 112 1280 112
WIRE 144 128 144 112
WIRE 432 128 432 112
WIRE 1008 128 944 128
WIRE 1792 160 1792 32
WIRE 1920 160 1920 32
WIRE 1376 192 1376 112
WIRE 1504 192 1376 192
WIRE 1632 192 1584 192
WIRE 1792 192 1632 192
WIRE 2096 224 2096 80
WIRE 2096 224 1920 224
WIRE 2032 256 1920 256
WIRE 2128 256 2032 256
WIRE 2208 256 2192 256
FLAG 336 192 0
FLAG 64 192 0
FLAG 144 192 0
FLAG 432 192 0
FLAG 592 192 0
FLAG 944 208 0
FLAG 1632 256 0
FLAG 1792 256 0
FLAG 1792 224 0
FLAG 1984 192 0
FLAG 2096 32 +Vs
FLAG 2160 80 0
FLAG 2032 400 0
FLAG 2208 336 0
FLAG 1040 -208 0
FLAG 1312 -208 0
FLAG 1040 -288 +Vs
FLAG 1312 -288 -Vs
FLAG 1040 80 +Vs
FLAG 736 64 +Vs
FLAG 736 128 -Vs
FLAG 1040 144 -Vs
FLAG 0 192 0
FLAG -928 208 0
FLAG -576 208 0
FLAG -208 192 0
FLAG -928 128 c
FLAG -576 128 m
SYMBOL diode 240 128 R270
WINDOW 0 32 32 VTop 2
WINDOW 3 0 32 VBottom 2
SYMATTR InstName D1
SYMATTR Value D1N34A
SYMBOL ind2 48 96 R0
SYMATTR InstName L1
SYMATTR Value 150µ
SYMATTR Type ind
SYMBOL ind2 -16 96 R0
SYMATTR InstName L2
SYMATTR Value 20µ
SYMATTR Type ind
SYMBOL cap 128 128 R0
SYMATTR InstName C1
SYMATTR Value 220p
SYMBOL res 320 96 R0
SYMATTR InstName R1
SYMATTR Value 47k
SYMBOL cap 416 128 R0
SYMATTR InstName C2
SYMATTR Value 2.2n
SYMBOL cap 544 96 R90
WINDOW 0 0 32 VBottom 2
WINDOW 3 32 32 VTop 2
SYMATTR InstName C3
SYMATTR Value 100n
SYMBOL res 576 96 R0
SYMATTR InstName R2
SYMATTR Value 47k
SYMBOL LM741 736 32 R0
SYMATTR InstName U1
SYMBOL LM741 1040 48 R0
SYMATTR InstName U2
SYMBOL res 928 80 R90
WINDOW 0 0 56 VBottom 2
WINDOW 3 32 56 VTop 2
SYMATTR InstName R3
SYMATTR Value 1k
SYMBOL res 928 112 R0
SYMATTR InstName R4
SYMATTR Value 47k
SYMBOL res 1104 -16 R90
WINDOW 0 0 56 VBottom 2
WINDOW 3 32 56 VTop 2
SYMATTR InstName R5
SYMATTR Value 2K
SYMBOL cap 1280 96 R90
WINDOW 0 0 32 VBottom 2
WINDOW 3 32 32 VTop 2
SYMATTR InstName C4
SYMATTR Value 22µ
SYMBOL res 1600 176 R90
WINDOW 0 0 56 VBottom 2
WINDOW 3 32 56 VTop 2
SYMATTR InstName R8
SYMATTR Value 8K
SYMBOL cap 1616 192 R0
SYMATTR InstName C5
SYMATTR Value 1n
SYMBOL LM386 1856 208 R0
SYMATTR InstName U3
SYMBOL cap 1888 16 R90
WINDOW 0 0 32 VBottom 2
WINDOW 3 32 32 VTop 2
SYMATTR InstName C6
SYMATTR Value 10µ
SYMBOL cap 1984 176 R90
WINDOW 0 0 32 VBottom 2
WINDOW 3 32 32 VTop 2
SYMATTR InstName C7
SYMATTR Value 10µ
SYMBOL cap 2160 64 R90
WINDOW 0 0 32 VBottom 2
WINDOW 3 32 32 VTop 2
SYMATTR InstName C8
SYMATTR Value 0.05µ
SYMBOL cap 2016 256 R0
SYMATTR InstName C9
SYMATTR Value 0.05µ
SYMBOL res 2016 304 R0
SYMATTR InstName R9
SYMATTR Value 10
SYMBOL cap 2192 240 R90
WINDOW 0 0 32 VBottom 2
WINDOW 3 32 32 VTop 2
SYMATTR InstName C10
SYMATTR Value 220µ
SYMBOL res 2192 240 R0
SYMATTR InstName R10
SYMATTR Value 8
SYMBOL voltage 1040 -304 R0
WINDOW 123 0 0 Left 0
WINDOW 39 0 0 Left 0
SYMATTR InstName V1
SYMATTR Value 12
SYMBOL voltage 1312 -304 R0
WINDOW 123 0 0 Left 0
WINDOW 39 0 0 Left 0
SYMATTR InstName V2
SYMATTR Value -12
SYMBOL voltage -576 112 R0
WINDOW 123 0 0 Left 0
WINDOW 39 0 0 Left 0
SYMATTR InstName V4
SYMATTR Value SINE(1 0.3 3k)
SYMBOL voltage -928 112 R0
WINDOW 123 0 0 Left 0
WINDOW 39 0 0 Left 0
SYMATTR InstName V5
SYMATTR Value SINE(0 0.4 873k)
SYMBOL bv -208 96 R0
SYMATTR InstName B1
SYMATTR Value V=V(m)*V(c)
SYMBOL res -32 96 R90
WINDOW 0 0 56 VBottom 2
WINDOW 3 32 56 VTop 2
SYMATTR InstName R11
SYMATTR Value 1
TEXT 1992 488 Left 2 ;POW AMP
TEXT 712 248 Left 2 ;BUFFER
TEXT 960 272 Left 2 ;VOLUME
TEXT 1320 376 Left 2 ;LOW PASS FILTER VARIABLE
TEXT 0 64 Left 2 !K L2 L1 1
TEXT 56 264 Left 2 ;LC BAND PASS
TEXT 352 256 Left 2 ;DEMODULATOR
TEXT -960 512 Left 2 !.tran 10m
TEXT -488 -16 Left 2 !.model D1N34A D(IS=2e-4 N=1.05 Rs=1 Cjo=8e-12 Vj=0.3 M=0.5 Eg=0.67 Bv=50 Ibv=0.1u)
