Version 4
SHEET 1 880 680
WIRE 0 96 -32 96
WIRE -352 112 -656 112
WIRE -208 112 -288 112
WIRE -112 112 -208 112
WIRE 128 112 64 112
WIRE 176 112 128 112
WIRE 288 112 240 112
WIRE 432 112 288 112
WIRE -112 128 -112 112
WIRE 0 128 -112 128
WIRE 288 160 288 112
WIRE 640 176 560 176
WIRE 672 176 640 176
WIRE 128 208 128 112
WIRE 640 224 640 176
WIRE -32 304 -32 96
WIRE 128 304 128 288
WIRE 128 304 -32 304
WIRE -656 320 -656 112
FLAG -288 400 0
FLAG 32 144 0
FLAG -288 320 +Vcc
FLAG 32 80 +Vcc
FLAG -208 272 0
FLAG 128 464 0
FLAG 640 368 0
FLAG 288 240 0
FLAG 432 144 0
FLAG 432 176 0
FLAG 560 144 +Vcc
FLAG -656 400 0
FLAG -656 112 V1
FLAG -208 112 V2
FLAG 128 112 V3
FLAG 288 112 V4
FLAG 736 176 V6
FLAG 640 176 V5
SYMBOL LM741 32 48 R0
WINDOW 0 -1333 -153 Left 2
WINDOW 3 20 112 Left 2
SYMATTR InstName U1
SYMBOL LM386 496 128 R0
WINDOW 0 -1753 -237 Bottom 2
SYMATTR InstName U2
SYMBOL voltage -288 304 R0
WINDOW 0 -919 -551 Left 2
WINDOW 123 0 0 Left 0
WINDOW 39 0 0 Left 0
SYMATTR InstName V1
SYMATTR Value 10
SYMBOL res 112 288 R0
SYMATTR InstName R1
SYMATTR Value 10k
SYMBOL res 112 192 R0
WINDOW 0 41 42 Left 2
SYMATTR InstName R2
SYMATTR Value 100k
SYMBOL cap -288 96 R90
WINDOW 0 -173 948 VBottom 2
WINDOW 3 32 32 VTop 2
SYMATTR InstName C1
SYMATTR Value 1µ
SYMBOL cap 176 128 R270
WINDOW 0 277 -1329 VTop 2
WINDOW 3 0 32 VBottom 2
SYMATTR InstName C3
SYMATTR Value 22µ
SYMBOL cap 736 160 R90
WINDOW 0 -304 2002 VBottom 2
WINDOW 3 32 32 VTop 2
SYMATTR InstName C4
SYMATTR Value 250µ
SYMBOL cap 656 288 R180
WINDOW 0 1852 353 Left 2
WINDOW 3 24 8 Left 2
SYMATTR InstName C5
SYMATTR Value 0.05µ
SYMBOL res -224 96 R0
WINDOW 0 -998 -218 Left 2
SYMATTR InstName R3
SYMATTR Value 10k
SYMBOL res 304 256 R180
WINDOW 0 1559 338 Left 2
WINDOW 3 36 40 Left 2
SYMATTR InstName R4
SYMATTR Value 10k
SYMBOL res 656 384 R180
WINDOW 0 1913 585 Left 2
WINDOW 3 36 40 Left 2
SYMATTR InstName R5
SYMATTR Value 10k
SYMBOL voltage -208 176 R0
WINDOW 0 -1015 -364 Left 2
WINDOW 123 0 0 Left 0
WINDOW 39 0 0 Left 0
SYMATTR InstName V2
SYMATTR Value 5
SYMBOL voltage 128 368 R0
WINDOW 0 -1377 -603 Left 2
WINDOW 123 0 0 Left 0
WINDOW 39 0 0 Left 0
SYMATTR InstName V3
SYMATTR Value 5
SYMBOL voltage -656 304 R0
WINDOW 0 -567 -466 Left 2
WINDOW 123 24 124 Left 2
WINDOW 39 0 0 Left 0
SYMATTR InstName V4
SYMATTR Value SINE(0 1 100)
SYMATTR Value2 AC 1
TEXT -352 504 Left 2 !.tran 0.01
